[TITLE]
This is an example EPANET 2.0 input file for use with the WCEN computational software tool. This input file is for the Diurnal Simulation scenario, Solution 16 from 
Stokes et al. (2014) "A Computational Software Tool for the Minimization of Costs and Greenhouse Gas Emissions associated with Water Distribution Systems"


[JUNCTIONS]
 301                                   0.0000
 306                                   0.0000
 1                                    12.6000
 2                                    21.6000
 4                                    34.1000
 3                                    48.3000
 6                                    61.0000
 7                                    46.2000
 5                                    18.2000
 9                                    13.2000
 10                                   16.7000
 8                                    24.6000
 302                                   0.0000
 303                                   0.0000
 304                                   0.0000
 305                                   0.0000
 11                                   16.8000
 12                                   28.9000
 14                                   36.7000
 13                                   22.9000
 307                                   0.0000
 403                                  90.0000
 404                                  90.0000

[RESERVOIRS]
 300                                   0.0000 

[TANKS]
 402                                  90.0000       5.0000       0.0000      10.0000      19.6000       0.0000 

[PIPES]
 2                               1                               2                                   200.0000     375.0000     100.0000       0.0000 
 3                               2                               4                                   200.0000     100.0000     100.0000       0.0000 
 4                               4                               3                                   200.0000     100.0000     100.0000       0.0000 
 5                               3                               2                                   280.0000     300.0000     100.0000       0.0000 
 6                               1                               5                                   200.0000     150.0000     100.0000       0.0000 
 7                               5                               4                                   200.0000     100.0000     100.0000       0.0000 
 8                               4                               7                                   200.0000     100.0000     100.0000       0.0000 
 9                               7                               6                                   200.0000     100.0000     100.0000       0.0000 
 10                              6                               3                                   200.0000     300.0000     100.0000       0.0000 
 11                              7                               8                                   200.0000     100.0000     100.0000       0.0000 
 12                              8                               5                                   200.0000     100.0000     100.0000       0.0000 
 13                              5                               10                                  200.0000     100.0000     100.0000       0.0000 
 14                              10                              9                                   200.0000     100.0000     100.0000       0.0000 
 15                              9                               1                                   200.0000     225.0000     100.0000       0.0000 
 16                              10                              8                                   280.0000     100.0000     100.0000       0.0000 
 300                             300                             301                                  20.0000     800.0000     100.0000       0.0000 
 301                             301                             302                                  10.0000     800.0000     100.0000       0.0000 
 302                             303                             306                                  10.0000     800.0000     100.0000       0.0000 
 303                             301                             304                                  10.0000     800.0000     100.0000       0.0000 
 304                             305                             306                                  10.0000     800.0000     100.0000       0.0000 
 17                              9                               11                                  200.0000     150.0000     100.0000       0.0000 
 18                              10                              12                                  200.0000     100.0000     100.0000       0.0000 
 19                              12                              11                                  200.0000     100.0000     100.0000       0.0000 
 20                              11                              13                                  200.0000     150.0000     100.0000       0.0000 
 21                              12                              14                                  200.0000     100.0000     100.0000       0.0000 
 22                              14                              13                                  200.0000     100.0000     100.0000       0.0000 
 1                               307                             1                                   600.0000     375.0000     100.0000       0.0000 
 32                              306                             307                                  10.0000     800.0000     100.0000       0.0000 CV
 24                              6                               403                                 300.0000     300.0000     100.0000       0.0000 
 403                             404                             402                                   1.0000     400.0000     100.0000       0.0000 

[PUMPS]
 106                             302                             303                              HEAD 6  SPEED 0.0000
 206                             304                             305                              HEAD 6  SPEED 0.0000
 105                             302                             303                              HEAD 5  SPEED 0.0000
 104                             302                             303                              HEAD 4  SPEED 0.0000
 103                             302                             303                              HEAD 3  SPEED 0.0000
 102                             302                             303                              HEAD 2
 107                             302                             303                              HEAD 7  SPEED 0.0000
 108                             302                             303                              HEAD 8  SPEED 0.0000
 109                             302                             303                              HEAD 9  SPEED 0.0000
 110                             302                             303                              HEAD 10  SPEED 0.0000
 101                             302                             303                              HEAD 1  SPEED 0.0000
 111                             302                             303                              HEAD 11  SPEED 0.0000
 205                             304                             305                              HEAD 5  SPEED 0.0000
 204                             304                             305                              HEAD 4  SPEED 0.0000
 203                             304                             305                              HEAD 3  SPEED 0.0000
 202                             304                             305                              HEAD 2
 201                             304                             305                              HEAD 1  SPEED 0.0000
 207                             304                             305                              HEAD 7  SPEED 0.0000
 208                             304                             305                              HEAD 8  SPEED 0.0000
 209                             304                             305                              HEAD 9  SPEED 0.0000
 210                             304                             305                              HEAD 10  SPEED 0.0000
 211                             304                             305                              HEAD 11  SPEED 0.0000

[VALVES]
 401                             403                             404                                 400.0000   PRV       0.0000       0.0000

[DEMANDS]
 301                                   0.000000    1
 306                                   0.000000    1
 1                                     5.000000    1
 2                                     5.000000    1
 4                                     5.000000    1
 3                                     5.000000    1
 6                                     5.000000    1
 7                                     5.000000    1
 5                                     5.000000    1
 9                                     5.000000    1
 10                                    5.000000    1
 8                                     5.000000    1
 302                                   0.000000    1
 303                                   0.000000    1
 304                                   0.000000    1
 305                                   0.000000    1
 11                                    5.000000    1
 12                                    5.000000    1
 14                                    5.000000    1
 13                                    5.000000    1
 307                                   0.000000    1
 403                                   0.000000    1
 404                                   0.000000    1

[EMITTERS]

[STATUS]
 106                             closed
 206                             closed
 105                             closed
 104                             closed
 103                             closed
 107                             closed
 108                             closed
 109                             closed
 110                             closed
 101                             closed
 111                             closed
 205                             closed
 204                             closed
 203                             closed
 201                             closed
 207                             closed
 208                             closed
 209                             closed
 210                             closed
 211                             closed
 401                             open

[PATTERNS]
 1                                     0.4129       0.2973       0.3551       0.3882       0.5038       0.7185
 1                                     1.1810       1.7261       1.7178       1.5114       1.2553       1.0819
 1                                     0.9828       0.9002       0.8919       0.9167       1.3297       1.6435
 1                                     1.6022       1.2388       1.1067       1.0158       0.7515       0.4708

[CURVES]
 1                                     0.0000     160.0000
 1                                    17.0000     159.0000
 1                                    34.0000     155.0000
 1                                    51.0000     150.0000
 1                                    68.0000     145.0000
 1                                    85.0000     135.0000
 1                                   102.0000     124.0000
 1                                   112.0000     118.0000
 1                                   119.0000     111.0000
 1                                   136.0000      92.8000
 1                                   145.0000      81.7000
 2                                     0.0000     142.0000
 2                                    19.0000     141.0000
 2                                    38.0000     138.0000
 2                                    57.0000     134.0000
 2                                    76.0000     129.0000
 2                                    95.0000     122.0000
 2                                   114.0000     113.0000
 2                                   130.0000     104.0000
 2                                   133.0000     102.0000
 2                                   152.0000      88.0000
 2                                   167.0000      72.0000
 3                                     0.0000     117.0000
 3                                    45.0000     116.5000
 3                                    67.0000     115.0000
 3                                    89.0000     114.0000
 3                                   111.0000     111.0000
 3                                   133.0000     107.0000
 3                                   155.0000     102.0000
 3                                   175.0000      95.9000
 3                                   177.0000      95.5000
 3                                   199.0000      85.6000
 3                                   220.0000      74.4000
 4                                     0.0000     149.0000
 4                                    25.0000     141.0000
 4                                    50.0000     133.0000
 4                                    72.0000     126.0000
 4                                    94.0000     119.0000
 4                                   116.0000     111.0000
 4                                   138.0000     101.0000
 4                                   142.0000      99.2000
 4                                   160.0000      87.2000
 4                                   182.0000      72.1000
 4                                   199.0000      58.8000
 5                                     0.0000     144.0000
 5                                    24.5000     137.0000
 5                                    49.0000     130.0000
 5                                    73.5000     123.0000
 5                                    98.0000     116.0000
 5                                   122.5000     109.0000
 5                                   147.0000      99.0000
 5                                   157.0000      94.6000
 5                                   171.5000      86.7000
 5                                   196.0000      72.1000
 5                                   219.0000      55.5000
 6                                     0.0000     185.0000
 6                                    27.5000     176.0000
 6                                    55.0000     168.0000
 6                                    82.5000     159.0000
 6                                   110.0000     150.0000
 6                                   137.5000     140.0000
 6                                   165.0000     129.0000
 6                                   180.0000     121.0000
 6                                   192.5000     113.0000
 6                                   220.0000      94.1000
 6                                   248.0000      72.5000
 7                                     0.0000     184.0000
 7                                    19.5000     173.0000
 7                                    39.0000     162.0000
 7                                    58.5000     150.0000
 7                                    78.0000     140.0000
 7                                    97.5000     128.0000
 7                                   117.0000     113.0000
 7                                   123.0000     107.0000
 7                                   136.5000      91.8000
 7                                   156.0000      63.5000
 7                                   175.0000      29.9000
 8                                     0.0000     123.0000
 8                                    28.0000     121.0000
 8                                    56.0000     118.0000
 8                                    84.0000     116.0000
 8                                   112.0000     112.0000
 8                                   140.0000     107.0000
 8                                   168.0000      98.9000
 8                                   183.0000      93.5000
 8                                   196.0000      87.2000
 8                                   224.0000      73.3000
 8                                   252.0000      55.8000
 9                                     0.0000     139.0000
 9                                    30.0000     134.0000
 9                                    55.0000     129.0000
 9                                    80.0000     123.0000
 9                                   105.0000     115.0000
 9                                   130.0000     106.0000
 9                                   155.0000      94.5000
 9                                   162.0000      90.7000
 9                                   180.0000      80.3000
 9                                   205.0000      62.6000
 9                                   231.0000      38.5000
 10                                    0.0000     138.0000
 10                                   30.0000     131.0000
 10                                   60.0000     123.0000
 10                                   90.0000     116.0000
 10                                  120.0000     110.0000
 10                                  150.0000     104.0000
 10                                  180.0000      97.0000
 10                                  210.0000      87.0000
 10                                  220.0000      83.4000
 10                                  240.0000      74.7000
 10                                  271.0000      60.0000
 11                                    0.0000     131.0000
 11                                   30.0000     126.0000
 11                                   60.0000     121.0000
 11                                   90.0000     115.0000
 11                                  120.0000     110.0000
 11                                  150.0000     103.0000
 11                                  180.0000      94.3000
 11                                  197.0000      88.3000
 11                                  210.0000      82.5000
 11                                  240.0000      68.1000
 11                                  271.0000      48.1000
 21                                    0.0000       0.0000
 21                                   26.0000      42.4000
 21                                   39.5000      52.0000
 21                                   53.0000      61.6000
 21                                   66.5000      71.3000
 21                                   80.0000      75.1000
 21                                   93.5000      78.1000
 21                                  107.0000      81.1000
 21                                  112.0000      81.7000
 21                                  120.5000      80.5000
 21                                  134.0000      77.0000
 21                                  145.0000      70.9000
 22                                    0.0000       0.0000
 22                                   32.6000      41.8000
 22                                   47.6000      53.7000
 22                                   62.6000      65.5000
 22                                   77.6000      72.7000
 22                                   92.6000      77.3000
 22                                  107.6000      81.8000
 22                                  122.6000      83.5000
 22                                  130.0000      84.0000
 22                                  137.6000      83.6000
 22                                  152.6000      80.7000
 22                                  167.0000      71.6000
 23                                    0.0000       0.0000
 23                                   46.1000      37.4000
 23                                   66.0000      48.4000
 23                                   86.0000      58.4000
 23                                  106.0000      66.1000
 23                                  124.0000      71.8000
 23                                  142.0000      74.7000
 23                                  162.0000      77.8000
 23                                  175.0000      78.5000
 23                                  181.0000      78.5000
 23                                  206.0000      75.1000
 23                                  220.0000      72.8000
 24                                    0.0000       0.0000
 24                                   62.1000      54.3000
 24                                   78.0000      67.0000
 24                                   94.0000      73.5000
 24                                  110.0000      78.2000
 24                                  126.0000      81.7000
 24                                  142.0000      83.3000
 24                                  158.0000      81.0000
 24                                  174.0000      78.7000
 24                                  190.0000      72.6000
 24                                  199.0000      68.4000
 25                                    0.0000       0.0000
 25                                   62.1000      52.1000
 25                                   79.5000      65.0000
 25                                   97.0000      72.2000
 25                                  114.5000      77.5000
 25                                  132.0000      81.4000
 25                                  149.5000      83.6000
 25                                  156.0000      84.0000
 25                                  157.0000      84.0000
 25                                  167.0000      83.2000
 25                                  184.5000      80.8000
 25                                  202.0000      75.8000
 25                                  219.0000      69.0000
 26                                    0.0000       0.0000
 26                                   62.1000      48.8000
 26                                   83.0000      62.5000
 26                                  104.0000      70.7000
 26                                  125.0000      77.2000
 26                                  146.0000      81.9000
 26                                  167.0000      84.4000
 26                                  180.0000      85.0000
 26                                  188.0000      84.5000
 26                                  209.0000      82.1000
 26                                  230.0000      77.3000
 26                                  248.0000      70.0000
 27                                    0.0000       0.0000
 27                                   42.0000      44.9000
 27                                   57.0000      61.0000
 27                                   72.0000      70.8000
 27                                   87.0000      76.0000
 27                                  102.0000      78.9000
 27                                  117.0000      80.9000
 27                                  123.0000      81.3000
 27                                  132.0000      79.5000
 27                                  147.0000      73.7000
 27                                  162.0000      60.8000
 27                                  175.0000      43.9000
 28                                    0.0000       0.0000
 28                                   74.0000      49.3000
 28                                   94.0000      61.8000
 28                                  114.0000      68.9000
 28                                  134.0000      74.4000
 28                                  154.0000      78.6000
 28                                  174.0000      80.7000
 28                                  183.0000      81.3000
 28                                  194.0000      79.9000
 28                                  214.0000      77.5000
 28                                  234.0000      72.7000
 28                                  252.0000      67.2000
 29                                    0.0000       0.0000
 29                                   42.0000      37.6000
 29                                   63.0000      55.4000
 29                                   84.0000      67.0000
 29                                  105.0000      74.9000
 29                                  126.0000      80.4000
 29                                  147.0000      83.4000
 29                                  161.0000      84.2000
 29                                  162.0000      84.2000
 29                                  168.0000      83.7000
 29                                  189.0000      81.0000
 29                                  210.0000      75.0000
 29                                  231.0000      62.3000
 30                                    0.0000       0.0000
 30                                   80.0000      48.8000
 30                                  101.0000      58.9000
 30                                  122.0000      65.1000
 30                                  143.0000      70.4000
 30                                  164.0000      74.5000
 30                                  185.0000      77.6000
 30                                  206.0000      78.9000
 30                                  220.0000      79.5000
 30                                  222.0000      79.5000
 30                                  227.0000      79.3000
 30                                  248.0000      77.8000
 30                                  271.0000      74.5000
 31                                    0.0000       0.0000
 31                                   53.0000      35.6000
 31                                   77.5000      52.1000
 31                                  102.0000      67.8000
 31                                  126.5000      74.4000
 31                                  151.0000      79.4000
 31                                  175.5000      82.1000
 31                                  197.0000      83.3000
 31                                  200.0000      83.0000
 31                                  224.5000      80.3000
 31                                  249.0000      73.4000
 31                                  271.0000      63.9000

[CONTROLS]
 LINK 102 1.0000 AT CLOCKTIME 21:30:00
 LINK 102 0.0000 AT CLOCKTIME 15:30:00
 LINK 102 1.0000 AT CLOCKTIME 7:30:00
 LINK 102 0.0000 AT CLOCKTIME 8:00:00
 LINK 202 1.0000 AT CLOCKTIME 17:00:00
 LINK 202 0.0000 AT CLOCKTIME 18:30:00
 LINK 202 1.0000 AT CLOCKTIME 16:00:00
 LINK 202 0.0000 AT CLOCKTIME 8:00:00

[QUALITY]

[SOURCES]

[MIXING]
 402                             MIXED          1.0000

[REACTIONS]
 ORDER  BULK            1.00
 ORDER  WALL            1
 ORDER  TANK            1.00
 GLOBAL BULK            0.000000
 GLOBAL WALL            0.000000

[ENERGY]
 GLOBAL EFFIC        75.0000
 DEMAND CHARGE       0.0000
 PUMP 106                             EFFIC   26
 PUMP 206                             EFFIC   26
 PUMP 105                             EFFIC   25
 PUMP 104                             EFFIC   24
 PUMP 103                             EFFIC   23
 PUMP 102                             EFFIC   22
 PUMP 107                             EFFIC   27
 PUMP 108                             EFFIC   28
 PUMP 109                             EFFIC   29
 PUMP 110                             EFFIC   30
 PUMP 101                             EFFIC   21
 PUMP 111                             EFFIC   31
 PUMP 205                             EFFIC   25
 PUMP 204                             EFFIC   24
 PUMP 203                             EFFIC   23
 PUMP 202                             EFFIC   22
 PUMP 201                             EFFIC   21
 PUMP 207                             EFFIC   27
 PUMP 208                             EFFIC   28
 PUMP 209                             EFFIC   29
 PUMP 210                             EFFIC   30
 PUMP 211                             EFFIC   31

[TIMES]
 DURATION            48:00:00
 HYDRAULIC TIMESTEP  0:15:00
 QUALITY TIMESTEP    0:04:59
 REPORT TIMESTEP     0:15:00
 REPORT START        0:00:00
 PATTERN TIMESTEP    1:00:00
 PATTERN START       0:00:00
 RULE TIMESTEP       0:01:30
 START CLOCKTIME     0:00:00
 STATISTIC           NONE

[OPTIONS]
 UNITS               LPS
 PRESSURE            METERS
 HEADLOSS            H-W
 PATTERN             1
 UNBALANCED          CONTINUE 10
 QUALITY             NONE
 DEMAND MULTIPLIER   1.0000
 EMITTER EXPONENT    0.5000
 VISCOSITY           1.000000
 DIFFUSIVITY         1.000000
 SPECIFIC GRAVITY    1.000000
 TRIALS              40
 ACCURACY            0.00100000
 TOLERANCE           0.01000000
 CHECKFREQ           2
 MAXCHECK            10
 DAMPLIMIT           0.00000000

[REPORT]
 PAGESIZE            0
 STATUS              NO
 SUMMARY             NO
 ENERGY              NO
 NODES               NONE
 LINKS               NONE
 Elevation           NO
 Demand              PRECISION 2
 Head                PRECISION 2
 Pressure            PRECISION 2
 Quality             NO
 Length              NO
 Diameter            NO
 Flow                PRECISION 2
 Velocity            PRECISION 2
 Headloss            PRECISION 2
 Quality             NO
 State               NO
 Setting             NO
 Reaction            NO
[TAGS]

[RULES]



[COORDINATES]
;Node            	X-Coord         	Y-Coord
 301             	-1691.51        	4942.66         
 306             	2563.07         	4954.13         
 1               	5521.79         	6227.06         
 2               	5521.79         	7775.23         
 4               	7517.20         	7775.23         
 3               	7517.20         	9392.20         
 6               	9466.74         	9392.20         
 7               	9466.74         	7775.23         